/*--------------------------------*- C++ -*----------------------------------*\
  =========                 |
  \\      /  F ield         | OpenFOAM: The Open Source CFD Toolbox
   \\    /   O peration     | Website:  https://openfoam.org
    \\  /    A nd           | Version:  8
     \\/     M anipulation  |
\*---------------------------------------------------------------------------*/
FoamFile
{
    version     2.0;
    format      ascii;
    class       dictionary;
    location    "system";
    object      fvSchemes;
}
// * * * * * * * * * * * * * * * * * * * * * * * * * * * * * * * * * * * * * //

ddtSchemes
{
    default         Euler;
}

gradSchemes
{
    default         Gauss linear;
    grad(p)         Gauss linear;
}

divSchemes
{
    default         none;
    div(alphaPhi.air,U.air)    Gauss linearUpwindV unlimited;
    div(((alpha.air*nuEff.air)*dev2(T(grad(U.air))))) Gauss linear;
    div(alphaPhi.air,epsilon.air) bounded Gauss limitedLinear 1;
    div(alphaPhi.air,k.air) bounded Gauss linear;//limitedLinear 1;
    div(alphaPhi.air,omega.air) bounded Gauss linear;
}

laplacianSchemes
{
    default         Gauss linear orthogonal;
}

interpolationSchemes
{
    default         linear;
}

snGradSchemes
{
    default         orthogonal;
}

wallDist
{
    method meshWave;
}


// ************************************************************************* //
